test/data/case14-ne.json


{
  "multinetwork": false,
  "name": "case14",
  "dcline": [
    
  ],
  "baseMVA": 100,
  "gen": {
    "4": {
      "qc1max": 0,
      "pg": 0,
      "qc2max": 0,
      "ramp_agc": 0,
      "qg": 0.122,
      "gen_bus": 6,
      "pmax": 1,
      "ramp_10": 0,
      "mbase": 100,
      "vg": 1.07,
      "pc2": 0,
      "index": 4,
      "qmax": 0.24,
      "gen_status": 1,
      "qmin": -0.06,
      "qc1min": 0,
      "qc2min": 0,
      "pc1": 0,
      "ramp_q": 0,
      "ramp_30": 0,
      "apf": 0,
      "pmin": 0,
      "cost": [
        100,
        4000,
        0
      ]      
    },
    "1": {
      "qc1max": 0,
      "pg": 2.324,
      "qc2max": 0,
      "ramp_agc": 0,
      "qg": -0.169,
      "gen_bus": 1,
      "pmax": 0,
      "ramp_10": 0,
      "mbase": 100,
      "vg": 1.06,
      "pc2": 0,
      "index": 1,
      "qmax": 0.1,
      "gen_status": 1,
      "qmin": 0,
      "qc1min": 0,
      "qc2min": 0,
      "pc1": 0,
      "ramp_q": 0,
      "ramp_30": 0,
      "apf": 0,
      "pmin": 0,
      "cost": [
        430.292599,
        2000,
        0
      ]
    },
    "5": {
      "qc1max": 0,
      "pg": 0,
      "qc2max": 0,
      "ramp_agc": 0,
      "qg": 0.174,
      "gen_bus": 8,
      "pmax": 0,
      "ramp_10": 0,
      "mbase": 100,
      "vg": 1.09,
      "pc2": 0,
      "index": 5,
      "qmax": 0.24,
      "gen_status": 1,
      "qmin": -0.06,
      "qc1min": 0,
      "qc2min": 0,
      "pc1": 0,
      "ramp_q": 0,
      "ramp_30": 0,
      "apf": 0,
      "pmin": 0,
      "cost": [
        100,
        4000,
        0
      ]      
    },
    "2": {
      "qc1max": 0,
      "pg": 0.4,
      "qc2max": 0,
      "ramp_agc": 0,
      "qg": 0.424,
      "gen_bus": 2,
      "pmax": 2.8,
      "ramp_10": 0,
      "mbase": 100,
      "vg": 1.045,
      "pc2": 0,
      "index": 2,
      "qmax": 1,
      "gen_status": 1,
      "qmin": -0.4,
      "qc1min": 0,
      "qc2min": 0,
      "pc1": 0,
      "ramp_q": 0,
      "ramp_30": 0,
      "apf": 0,
      "pmin": 0,
      "cost": [
        2500,
        2000,
        0
      ]      
    },
    "3": {
      "qc1max": 0,
      "pg": 0,
      "qc2max": 0,
      "ramp_agc": 0,
      "qg": 0.234,
      "gen_bus": 3,
      "pmax": 2,
      "ramp_10": 0,
      "mbase": 100,
      "vg": 1.01,
      "pc2": 0,
      "index": 3,
      "qmax": 0.8,
      "gen_status": 1,
      "qmin": 0,
      "qc1min": 0,
      "qc2min": 0,
      "pc1": 0,
      "ramp_q": 0,
      "ramp_30": 0,
      "apf": 0,
      "pmin": 0,
      "cost": [
        100,
        4000,
        0
      ]      
    }
  },
  "branch": {
    "4": {
      "br_r": 0.05811,
      "rate_a": 6.0522846782856,
      "shift": 0,
      "br_b": 0.034,
      "rate_b": 0,
      "br_x": 0.17632,
      "rate_c": 0,
      "f_bus": 2,
      "br_status": 1,
      "t_bus": 4,
      "index": 4,
      "angmin": -1.0471975511966,
      "angmax": 1.0471975511966,
      "tap": 1
    },
    "1": {
      "br_r": 0.01938,
      "rate_a": 0.01,
      "shift": 0,
      "br_b": 0.0528,
      "rate_b": 0,
      "br_x": 0.05917,
      "rate_c": 0,
      "f_bus": 1,
      "br_status": 1,
      "t_bus": 2,
      "index": 1,
      "angmin": -1.0471975511966,
      "angmax": 1.0471975511966,
      "tap": 1
    },
    "12": {
      "br_r": 0.12291,
      "rate_a": 3.959047886582,
      "shift": 0,
      "br_b": 0,
      "rate_b": 0,
      "br_x": 0.25581,
      "rate_c": 0,
      "f_bus": 6,
      "br_status": 1,
      "t_bus": 12,
      "index": 12,
      "angmin": -1.0471975511966,
      "angmax": 1.0471975511966,
      "tap": 1
    },
    "20": {
      "br_r": 0.17093,
      "rate_a": 2.8978886960651,
      "shift": 0,
      "br_b": 0,
      "rate_b": 0,
      "br_x": 0.34802,
      "rate_c": 0,
      "f_bus": 13,
      "br_status": 1,
      "t_bus": 14,
      "index": 20,
      "angmin": -1.0471975511966,
      "angmax": 1.0471975511966,
      "tap": 1
    },
    "2": {
      "br_r": 0.05403,
      "rate_a": 4.8960542688691,
      "shift": 0,
      "br_b": 0.0492,
      "rate_b": 0,
      "br_x": 0.22304,
      "rate_c": 0,
      "f_bus": 1,
      "br_status": 1,
      "t_bus": 5,
      "index": 2,
      "angmin": -1.0471975511966,
      "angmax": 1.0471975511966,
      "tap": 1
    },
    "6": {
      "br_r": 0.06701,
      "rate_a": 6.116864888794,
      "shift": 0,
      "br_b": 0.0128,
      "rate_b": 0,
      "br_x": 0.17103,
      "rate_c": 0,
      "f_bus": 3,
      "br_status": 1,
      "t_bus": 4,
      "index": 6,
      "angmin": -1.0471975511966,
      "angmax": 1.0471975511966,
      "tap": 1
    },
    "11": {
      "br_r": 0.09498,
      "rate_a": 5.0976756758135,
      "shift": 0,
      "br_b": 0,
      "rate_b": 0,
      "br_x": 0.1989,
      "rate_c": 0,
      "f_bus": 6,
      "br_status": 1,
      "t_bus": 11,
      "index": 11,
      "angmin": -1.0471975511966,
      "angmax": 1.0471975511966,
      "tap": 1
    },
    "13": {
      "br_r": 0.06615,
      "rate_a": 7.6904633623738,
      "shift": 0,
      "br_b": 0,
      "rate_b": 0,
      "br_x": 0.13027,
      "rate_c": 0,
      "f_bus": 6,
      "br_status": 1,
      "t_bus": 13,
      "index": 13,
      "angmin": -1.0471975511966,
      "angmax": 1.0471975511966,
      "tap": 1
    },
    "5": {
      "br_r": 0.05695,
      "rate_a": 6.1409399712457,
      "shift": 0,
      "br_b": 0.0346,
      "rate_b": 0,
      "br_x": 0.17388,
      "rate_c": 0,
      "f_bus": 2,
      "br_status": 1,
      "t_bus": 5,
      "index": 5,
      "angmin": -1.0471975511966,
      "angmax": 1.0471975511966,
      "tap": 1
    },
    "15": {
      "br_r": 0,
      "rate_a": 10.213616943914,
      "shift": 0,
      "br_b": 0,
      "rate_b": 0,
      "br_x": 0.11001,
      "rate_c": 0,
      "f_bus": 7,
      "br_status": 1,
      "t_bus": 9,
      "index": 15,
      "angmin": -1.0471975511966,
      "angmax": 1.0471975511966,
      "tap": 1
    },
    "16": {
      "br_r": 0.03181,
      "rate_a": 12.444466590366,
      "shift": 0,
      "br_b": 0,
      "rate_b": 0,
      "br_x": 0.0845,
      "rate_c": 0,
      "f_bus": 9,
      "br_status": 1,
      "t_bus": 10,
      "index": 16,
      "angmin": -1.0471975511966,
      "angmax": 1.0471975511966,
      "tap": 1
    },
    "14": {
      "br_r": 0,
      "rate_a": 6.3786545557763,
      "shift": 0,
      "br_b": 0,
      "rate_b": 0,
      "br_x": 0.17615,
      "rate_c": 0,
      "f_bus": 7,
      "br_status": 1,
      "t_bus": 8,
      "index": 14,
      "angmin": -1.0471975511966,
      "angmax": 1.0471975511966,
      "tap": 1
    },
    "7": {
      "br_r": 0.01335,
      "rate_a": 25.434914322395,
      "shift": 0,
      "br_b": 0,
      "rate_b": 0,
      "br_x": 0.04211,
      "rate_c": 0,
      "f_bus": 4,
      "br_status": 1,
      "t_bus": 5,
      "index": 7,
      "angmin": -1.0471975511966,
      "angmax": 1.0471975511966,
      "tap": 1
    },
    "8": {
      "br_r": 0,
      "rate_a": 5.3729915837796,
      "shift": 0,
      "br_b": 0,
      "rate_b": 0,
      "br_x": 0.20912,
      "rate_c": 0,
      "f_bus": 4,
      "br_status": 1,
      "t_bus": 7,
      "index": 8,
      "angmin": -1.0471975511966,
      "angmax": 1.0471975511966,
      "tap": 0.978
    },
    "17": {
      "br_r": 0.12711,
      "rate_a": 3.7607780425253,
      "shift": 0,
      "br_b": 0,
      "rate_b": 0,
      "br_x": 0.27038,
      "rate_c": 0,
      "f_bus": 9,
      "br_status": 1,
      "t_bus": 14,
      "index": 17,
      "angmin": -1.0471975511966,
      "angmax": 1.0471975511966,
      "tap": 1
    },
    "10": {
      "br_r": 0,
      "rate_a": 4.4583763193397,
      "shift": 0,
      "br_b": 0,
      "rate_b": 0,
      "br_x": 0.25202,
      "rate_c": 0,
      "f_bus": 5,
      "br_status": 1,
      "t_bus": 6,
      "index": 10,
      "angmin": -1.0471975511966,
      "angmax": 1.0471975511966,
      "tap": 0.932
    },
    "19": {
      "br_r": 0.22092,
      "rate_a": 3.7714539264144,
      "shift": 0,
      "br_b": 0,
      "rate_b": 0,
      "br_x": 0.19988,
      "rate_c": 0,
      "f_bus": 12,
      "br_status": 1,
      "t_bus": 13,
      "index": 19,
      "angmin": -1.0471975511966,
      "angmax": 1.0471975511966,
      "tap": 1
    },
    "9": {
      "br_r": 0,
      "rate_a": 2.0202092847639,
      "shift": 0,
      "br_b": 0,
      "rate_b": 0,
      "br_x": 0.55618,
      "rate_c": 0,
      "f_bus": 4,
      "br_status": 1,
      "t_bus": 9,
      "index": 9,
      "angmin": -1.0471975511966,
      "angmax": 1.0471975511966,
      "tap": 0.969
    },
    "18": {
      "br_r": 0.08205,
      "rate_a": 5.3796439241179,
      "shift": 0,
      "br_b": 0,
      "rate_b": 0,
      "br_x": 0.19207,
      "rate_c": 0,
      "f_bus": 10,
      "br_status": 1,
      "t_bus": 11,
      "index": 18,
      "angmin": -1.0471975511966,
      "angmax": 1.0471975511966,
      "tap": 1
    },
    "3": {
      "br_r": 0.04699,
      "rate_a": 5.5221806597677,
      "shift": 0,
      "br_b": 0.0438,
      "rate_b": 0,
      "br_x": 0.19797,
      "rate_c": 0,
      "f_bus": 2,
      "br_status": 1,
      "t_bus": 3,
      "index": 3,
      "angmin": -1.0471975511966,
      "angmax": 1.0471975511966,
      "tap": 1
    }
  },
  "ne_branch": {
    "24": {
      "br_r": 0.05811,
      "rate_a": 6.0522846782856,
      "shift": 0,
      "br_b": 0.034,
      "rate_b": 0,
      "br_x": 0.17632,
      "rate_c": 0,
      "f_bus": 2,
      "br_status": 1,
      "t_bus": 4,
      "index": 24,
      "angmin": -1.0471975511966,
      "angmax": 1.0471975511966,
      "tap": 1,
      "construction_cost": 7226588.437
    },
    "29": {
      "br_r": 0,
      "rate_a": 2.0202092847639,
      "shift": 0,
      "br_b": 0,
      "rate_b": 0,
      "br_x": 0.55618,
      "rate_c": 0,
      "f_bus": 4,
      "br_status": 1,
      "t_bus": 9,
      "index": 29,
      "angmin": -1.0471975511966,
      "angmax": 1.0471975511966,
      "tap": 0.969,
      "construction_cost": 7226588.437
    },
    "32": {
      "br_r": 0.12291,
      "rate_a": 3.959047886582,
      "shift": 0,
      "br_b": 0,
      "rate_b": 0,
      "br_x": 0.25581,
      "rate_c": 0,
      "f_bus": 6,
      "br_status": 1,
      "t_bus": 12,
      "index": 32,
      "angmin": -1.0471975511966,
      "angmax": 1.0471975511966,
      "tap": 1,
      "construction_cost": 7226588.437
    },
    "25": {
      "br_r": 0.05695,
      "rate_a": 6.1409399712457,
      "shift": 0,
      "br_b": 0.0346,
      "rate_b": 0,
      "br_x": 0.17388,
      "rate_c": 0,
      "f_bus": 2,
      "br_status": 1,
      "t_bus": 5,
      "index": 25,
      "angmin": -1.0471975511966,
      "angmax": 1.0471975511966,
      "tap": 1,
      "construction_cost": 7226588.437
    },
    "23": {
      "br_r": 0.04699,
      "rate_a": 5.5221806597677,
      "shift": 0,
      "br_b": 0.0438,
      "rate_b": 0,
      "br_x": 0.19797,
      "rate_c": 0,
      "f_bus": 2,
      "br_status": 1,
      "t_bus": 3,
      "index": 23,
      "angmin": -1.0471975511966,
      "angmax": 1.0471975511966,
      "tap": 1,
      "construction_cost": 7226588.437
    },
    "22": {
      "br_r": 0.05403,
      "rate_a": 4.8960542688691,
      "shift": 0,
      "br_b": 0.0492,
      "rate_b": 0,
      "br_x": 0.22304,
      "rate_c": 0,
      "f_bus": 1,
      "br_status": 1,
      "t_bus": 5,
      "index": 22,
      "angmin": -1.0471975511966,
      "angmax": 1.0471975511966,
      "tap": 1,
      "construction_cost": 7226588.437
    },
    "35": {
      "br_r": 0,
      "rate_a": 10.213616943914,
      "shift": 0,
      "br_b": 0,
      "rate_b": 0,
      "br_x": 0.11001,
      "rate_c": 0,
      "f_bus": 7,
      "br_status": 1,
      "t_bus": 9,
      "index": 35,
      "angmin": -1.0471975511966,
      "angmax": 1.0471975511966,
      "tap": 1,
      "construction_cost": 7226588.437
    },
    "27": {
      "br_r": 0.01335,
      "rate_a": 25.434914322395,
      "shift": 0,
      "br_b": 0,
      "rate_b": 0,
      "br_x": 0.04211,
      "rate_c": 0,
      "f_bus": 4,
      "br_status": 1,
      "t_bus": 5,
      "index": 27,
      "angmin": -1.0471975511966,
      "angmax": 1.0471975511966,
      "tap": 1,
      "construction_cost": 7226588.437
    },
    "31": {
      "br_r": 0.09498,
      "rate_a": 5.0976756758135,
      "shift": 0,
      "br_b": 0,
      "rate_b": 0,
      "br_x": 0.1989,
      "rate_c": 0,
      "f_bus": 6,
      "br_status": 1,
      "t_bus": 11,
      "index": 31,
      "angmin": -1.0471975511966,
      "angmax": 1.0471975511966,
      "tap": 1,
      "construction_cost": 7226588.437
    },
    "33": {
      "br_r": 0.06615,
      "rate_a": 7.6904633623738,
      "shift": 0,
      "br_b": 0,
      "rate_b": 0,
      "br_x": 0.13027,
      "rate_c": 0,
      "f_bus": 6,
      "br_status": 1,
      "t_bus": 13,
      "index": 33,
      "angmin": -1.0471975511966,
      "angmax": 1.0471975511966,
      "tap": 1,
      "construction_cost": 7226588.437
    },
    "28": {
      "br_r": 0,
      "rate_a": 5.3729915837796,
      "shift": 0,
      "br_b": 0,
      "rate_b": 0,
      "br_x": 0.20912,
      "rate_c": 0,
      "f_bus": 4,
      "br_status": 1,
      "t_bus": 7,
      "index": 28,
      "angmin": -1.0471975511966,
      "angmax": 1.0471975511966,
      "tap": 0.978,
      "construction_cost": 7226588.437
    },
    "39": {
      "br_r": 0.22092,
      "rate_a": 3.7714539264144,
      "shift": 0,
      "br_b": 0,
      "rate_b": 0,
      "br_x": 0.19988,
      "rate_c": 0,
      "f_bus": 12,
      "br_status": 1,
      "t_bus": 13,
      "index": 39,
      "angmin": -1.0471975511966,
      "angmax": 1.0471975511966,
      "tap": 1,
      "construction_cost": 7226588.437
    },
    "40": {
      "br_r": 0.17093,
      "rate_a": 2.8978886960651,
      "shift": 0,
      "br_b": 0,
      "rate_b": 0,
      "br_x": 0.34802,
      "rate_c": 0,
      "f_bus": 13,
      "br_status": 1,
      "t_bus": 14,
      "index": 40,
      "angmin": -1.0471975511966,
      "angmax": 1.0471975511966,
      "tap": 1,
      "construction_cost": 7226588.437
    },
    "21": {
      "br_r": 0.01938,
      "rate_a": 18.046048863044,
      "shift": 0,
      "br_b": 0.0528,
      "rate_b": 0,
      "br_x": 0.05917,
      "rate_c": 0,
      "f_bus": 1,
      "br_status": 1,
      "t_bus": 2,
      "index": 21,
      "angmin": -1.0471975511966,
      "angmax": 1.0471975511966,
      "tap": 1,
      "construction_cost": 7226588.437
    },
    "38": {
      "br_r": 0.08205,
      "rate_a": 5.3796439241179,
      "shift": 0,
      "br_b": 0,
      "rate_b": 0,
      "br_x": 0.19207,
      "rate_c": 0,
      "f_bus": 10,
      "br_status": 1,
      "t_bus": 11,
      "index": 38,
      "angmin": -1.0471975511966,
      "angmax": 1.0471975511966,
      "tap": 1,
      "construction_cost": 7226588.437
    },
    "34": {
      "br_r": 0,
      "rate_a": 6.3786545557763,
      "shift": 0,
      "br_b": 0,
      "rate_b": 0,
      "br_x": 0.17615,
      "rate_c": 0,
      "f_bus": 7,
      "br_status": 1,
      "t_bus": 8,
      "index": 34,
      "angmin": -1.0471975511966,
      "angmax": 1.0471975511966,
      "tap": 1,
      "construction_cost": 7226588.437
    },
    "36": {
      "br_r": 0.03181,
      "rate_a": 12.444466590366,
      "shift": 0,
      "br_b": 0,
      "rate_b": 0,
      "br_x": 0.0845,
      "rate_c": 0,
      "f_bus": 9,
      "br_status": 1,
      "t_bus": 10,
      "index": 36,
      "angmin": -1.0471975511966,
      "angmax": 1.0471975511966,
      "tap": 1,
      "construction_cost": 7226588.437
    },
    "26": {
      "br_r": 0.06701,
      "rate_a": 6.116864888794,
      "shift": 0,
      "br_b": 0.0128,
      "rate_b": 0,
      "br_x": 0.17103,
      "rate_c": 0,
      "f_bus": 3,
      "br_status": 1,
      "t_bus": 4,
      "index": 26,
      "angmin": -1.0471975511966,
      "angmax": 1.0471975511966,
      "tap": 1,
      "construction_cost": 7226588.437
    },
    "37": {
      "br_r": 0.12711,
      "rate_a": 3.7607780425253,
      "shift": 0,
      "br_b": 0,
      "rate_b": 0,
      "br_x": 0.27038,
      "rate_c": 0,
      "f_bus": 9,
      "br_status": 1,
      "t_bus": 14,
      "index": 37,
      "angmin": -1.0471975511966,
      "angmax": 1.0471975511966,
      "tap": 1,
      "construction_cost": 7226588.437
    },
    "30": {
      "br_r": 0,
      "rate_a": 4.4583763193397,
      "shift": 0,
      "br_b": 0,
      "rate_b": 0,
      "br_x": 0.25202,
      "rate_c": 0,
      "f_bus": 5,
      "br_status": 1,
      "t_bus": 6,
      "index": 30,
      "angmin": -1.0471975511966,
      "angmax": 1.0471975511966,
      "tap": 0.932,
      "construction_cost": 7226588.437
    }
  },
  "version": "'2'",
  "bus": {
    "4": {
      "zone": 1,
      "bus_i": 4,
      "bus_type": 1,
      "qd": -0.078,
      "gs": 0,
      "bs": 0,
      "vmax": 1.06,
      "area": 1,
      "vmin": 0.94,
      "index": 4,
      "va": -0.18029251173101,
      "vm": 1.019,
      "base_kv": 0,
      "pd": 0.956
    },
    "1": {
      "zone": 1,
      "bus_i": 1,
      "bus_type": 3,
      "qd": 0,
      "gs": 0,
      "bs": 0,
      "vmax": 1.06,
      "area": 1,
      "vmin": 0.94,
      "index": 1,
      "va": 0,
      "vm": 1.06,
      "base_kv": 0,
      "pd": 0
    },
    "12": {
      "zone": 1,
      "bus_i": 12,
      "bus_type": 1,
      "qd": 0.032,
      "gs": 0,
      "bs": 0,
      "vmax": 1.06,
      "area": 1,
      "vmin": 0.94,
      "index": 12,
      "va": -0.26302111827555,
      "vm": 1.055,
      "base_kv": 0,
      "pd": 0.122
    },
    "2": {
      "zone": 1,
      "bus_i": 2,
      "bus_type": 2,
      "qd": 0.254,
      "gs": 0,
      "bs": 0,
      "vmax": 1.06,
      "area": 1,
      "vmin": 0.94,
      "index": 2,
      "va": -0.086917396749318,
      "vm": 1.045,
      "base_kv": 0,
      "pd": 0.434
    },
    "6": {
      "zone": 1,
      "bus_i": 6,
      "bus_type": 2,
      "qd": 0.15,
      "gs": 0,
      "bs": 0,
      "vmax": 1.06,
      "area": 1,
      "vmin": 0.94,
      "index": 6,
      "va": -0.24818581963359,
      "vm": 1.07,
      "base_kv": 0,
      "pd": 0.224
    },
    "11": {
      "zone": 1,
      "bus_i": 11,
      "bus_type": 1,
      "qd": 0.036,
      "gs": 0,
      "bs": 0,
      "vmax": 1.06,
      "area": 1,
      "vmin": 0.94,
      "index": 11,
      "va": -0.25813419636996,
      "vm": 1.057,
      "base_kv": 0,
      "pd": 0.07
    },
    "13": {
      "zone": 1,
      "bus_i": 13,
      "bus_type": 1,
      "qd": 0.116,
      "gs": 0,
      "bs": 0,
      "vmax": 1.06,
      "area": 1,
      "vmin": 0.94,
      "index": 13,
      "va": -0.26459191460234,
      "vm": 1.05,
      "base_kv": 0,
      "pd": 0.27
    },
    "5": {
      "zone": 1,
      "bus_i": 5,
      "bus_type": 1,
      "qd": 0.032,
      "gs": 0,
      "bs": 0,
      "vmax": 1.06,
      "area": 1,
      "vmin": 0.94,
      "index": 5,
      "va": -0.1532399083251,
      "vm": 1.02,
      "base_kv": 0,
      "pd": 0.152
    },
    "14": {
      "zone": 1,
      "bus_i": 14,
      "bus_type": 1,
      "qd": 0.1,
      "gs": 0,
      "bs": 0,
      "vmax": 1.06,
      "area": 1,
      "vmin": 0.94,
      "index": 14,
      "va": -0.27995081201989,
      "vm": 1.036,
      "base_kv": 0,
      "pd": 0.298
    },
    "7": {
      "zone": 1,
      "bus_i": 7,
      "bus_type": 1,
      "qd": 0,
      "gs": 0,
      "bs": 0,
      "vmax": 1.06,
      "area": 1,
      "vmin": 0.94,
      "index": 7,
      "va": -0.23335052099164,
      "vm": 1.062,
      "base_kv": 0,
      "pd": 0
    },
    "8": {
      "zone": 1,
      "bus_i": 8,
      "bus_type": 2,
      "qd": 0,
      "gs": 0,
      "bs": 0,
      "vmax": 1.06,
      "area": 1,
      "vmin": 0.94,
      "index": 8,
      "va": -0.23317598806644,
      "vm": 1.09,
      "base_kv": 0,
      "pd": 0
    },
    "10": {
      "zone": 1,
      "bus_i": 10,
      "bus_type": 1,
      "qd": 0.116,
      "gs": 0,
      "bs": 0,
      "vmax": 1.06,
      "area": 1,
      "vmin": 0.94,
      "index": 10,
      "va": -0.26354471705114,
      "vm": 1.051,
      "base_kv": 0,
      "pd": 0.18
    },
    "9": {
      "zone": 1,
      "bus_i": 9,
      "bus_type": 1,
      "qd": 0.332,
      "gs": 0,
      "bs": 0.19,
      "vmax": 1.06,
      "area": 1,
      "vmin": 0.94,
      "index": 9,
      "va": -0.26075219024795,
      "vm": 1.056,
      "base_kv": 0,
      "pd": 0.59
    },
    "3": {
      "zone": 1,
      "bus_i": 3,
      "bus_type": 2,
      "qd": 0.38,
      "gs": 0,
      "bs": 0,
      "vmax": 1.06,
      "area": 1,
      "vmin": 0.94,
      "index": 3,
      "va": -0.22200588085368,
      "vm": 1.01,
      "base_kv": 0,
      "pd": 1.884
    }
  },
  "per_unit": true
}

